Circuit: * C:\Users\monka\Desktop\Projects\linear_psu\psu01_spiDAC_spiADC\LTSpice\alarm_concept_XNOR.asc

Direct Newton iteration for .op point succeeded.

Date: Sun Feb 23 17:08:22 2020
Total elapsed time: 0.201 seconds.

tnom = 27
temp = 27
method = modified trap
totiter = 11963
traniter = 11935
tranpoints = 4589
accept = 3591
rejected = 998
matrix size = 51
fillins = 46
solver = Normal
Matrix Compiler1: 5.80 KB object code size  1.6/1.0/[0.3]
Matrix Compiler2: 5.01 KB object code size  0.5/0.8/[0.4]

